/*--------------------------------*- C++ -*----------------------------------*\
| =========                 |                                                 |
| \\      /  F ield         | OpenFOAM: The Open Source CFD Toolbox           |
|  \\    /   O peration     | Version:  v2106                                 |
|   \\  /    A nd           | Website:  www.openfoam.com                      |
|    \\/     M anipulation  |                                                 |
\*---------------------------------------------------------------------------*/
FoamFile
{
    version     2.0;
    format      ascii;
    class       dictionary;
    location    "constant";
    object      thermoPhysicalProperties;
}
// * * * * * * * * * * * * * * * * * * * * * * * * * * * * * * * * * * * * * //

solutionSpecies
{
   A 
   {
      D    D  [0 2 -1 0 0 0 0] Diff;
   }
   B
   {
      D    D  [0 2 -1 0 0 0 0] Diff;
   }



}

kineticPhases
{
  mineral 
  {
      species
      {
          A;
          B;
      }
      Ke Ke [0 -6 0 0 2 0 0] K_sp;
  }
}

kineticPhaseReactions
{
  mineral 
  {
      species
      {
          A
          {
              scoeff -1;
              ki ki [0 1 -1 0 0 0 0] 0;
          }
          B
          {
              scoeff -1;
              ki ki [0 1 -1 0 0 0 0] 0;
          }


      }
      k0 k0 [0 -2 -1 0 1 0 0] k_reac;
  }
}

// ************************************************************************* //
