FoamFile
{
    version     2.0;
    format      ascii;
    class       dictionary;
    object      topoSetDict;
}

actions
(
{
name refinementRegion;
type cellSet;
action new;
source fieldToCell;
field eps;
min 1.001;
max 1.003;
}
{
name refinementRegion;
type cellSet;
action add;
source fieldToCell;
field eps;
min 0.0018495;
max 0.34825049999999996;
}
{
name refinementRegion;
type cellSet;
action add;
source fieldToCell;
field eps;
min 0.35324999999999995;
max 0.99675;
}
);